EVs_20kW/Output_EVs_20kW_3ph/output_voltage_1440.csv
# Output_EVs_20kW_3ph\output_voltage_1440.csv run at 2000-01-02 00:00:00 EST on 963 nodes
node_name,voltA_mag,voltA_angle,voltB_mag,voltB_angle,voltC_mag,voltC_angle
SourceBus,6668.395609,0.000000,6668.395609,4.188790,6668.395609,2.094395
Bus1,252.169487,-0.523734,252.163042,3.665041,252.163363,1.570676
Bus2,252.165024,-0.523726,252.153875,3.665048,252.158024,1.570673
Bus3,252.164556,-0.523725,252.152914,3.665049,252.157464,1.570673
Bus4,252.164118,-0.523725,252.152013,3.665049,252.156939,1.570673
Bus5,252.163735,-0.523724,252.151228,3.665050,252.156482,1.570673
Bus6,252.163133,-0.523723,252.149992,3.665051,252.155762,1.570672
Bus7,252.122138,-0.523651,252.065780,3.665114,252.106713,1.570649
Bus8,252.120302,-0.523648,252.062008,3.665116,252.104516,1.570648
Bus9,252.118774,-0.523645,252.058869,3.665119,252.102688,1.570647
Bus10,252.117432,-0.523643,252.056114,3.665121,252.101083,1.570646
Bus11,252.116432,-0.523641,252.054058,3.665122,252.099886,1.570646
Bus12,252.115492,-0.523640,252.052128,3.665124,252.098762,1.570645
Bus13,252.114915,-0.523639,252.050941,3.665125,252.098071,1.570645
Bus14,252.113476,-0.523636,252.047987,3.665127,252.096350,1.570644
Bus15,252.101826,-0.523616,252.024055,3.665145,252.082411,1.570638
Bus16,252.101826,-0.523616,252.024055,3.665145,252.082411,1.570638
Bus17,252.087699,-0.523591,251.995034,3.665166,252.065508,1.570630
Bus18,252.101826,-0.523616,252.024055,3.665145,252.082411,1.570638
Bus19,252.086727,-0.523589,251.993037,3.665168,252.064345,1.570629
Bus20,252.101826,-0.523616,252.024055,3.665145,252.082411,1.570638
Bus21,252.085635,-0.523588,251.990795,3.665169,252.063039,1.570628
Bus22,252.101826,-0.523616,252.024055,3.665145,252.082411,1.570638
Bus23,252.083858,-0.523584,251.987144,3.665172,252.060912,1.570627
Bus24,252.101826,-0.523616,252.024055,3.665145,252.082411,1.570638
Bus25,252.080625,-0.523579,251.980503,3.665177,252.057044,1.570626
Bus26,252.101826,-0.523616,252.024055,3.665145,252.082411,1.570638
Bus27,252.069897,-0.523568,251.980535,3.665177,252.057161,1.570626
Bus28,252.052586,-0.523519,251.896061,3.665261,252.004416,1.570588
Bus29,252.101826,-0.523616,252.024055,3.665145,252.082411,1.570638
Bus30,252.069620,-0.523568,251.980536,3.665176,252.057164,1.570626
Bus31,252.067289,-0.523566,251.980543,3.665176,252.057190,1.570626
Bus32,252.045122,-0.523503,251.873582,3.665283,251.990405,1.570578
Bus33,252.101826,-0.523616,252.024055,3.665145,252.082411,1.570638
Bus34,252.068984,-0.523567,251.980538,3.665176,252.057171,1.570626
Bus35,252.067201,-0.523566,251.980543,3.665176,252.057191,1.570626
Bus36,252.045155,-0.523503,251.870510,3.665286,251.990414,1.570577
Bus37,252.021565,-0.523459,251.808576,3.665348,251.947753,1.570552
Bus38,252.101826,-0.523616,252.024055,3.665145,252.082411,1.570638
Bus39,252.067074,-0.523565,251.980543,3.665176,252.057192,1.570626
Bus40,252.045156,-0.523503,251.870404,3.665286,251.990415,1.570577
Bus41,252.045161,-0.523503,251.870022,3.665287,251.990416,1.570577
Bus42,252.005219,-0.523428,251.763467,3.665393,251.918155,1.570534
Bus43,252.021565,-0.523459,251.808576,3.665348,251.947753,1.570552
Bus44,252.101826,-0.523616,252.024055,3.665145,252.082411,1.570638
Bus45,252.066911,-0.523565,251.980544,3.665176,252.057194,1.570626
Bus46,252.045157,-0.523503,251.870356,3.665286,251.990415,1.570577
Bus47,252.045174,-0.523503,251.868846,3.665288,251.990419,1.570577
Bus48,251.992867,-0.523405,251.729381,3.665427,251.895789,1.570521
Bus49,252.021565,-0.523459,251.808576,3.665348,251.947753,1.570552
Bus50,252.101826,-0.523616,252.024055,3.665145,252.082411,1.570638
Bus51,252.066514,-0.523565,251.980545,3.665176,252.057198,1.570626
Bus52,252.045158,-0.523503,251.870305,3.665286,251.990415,1.570577
Bus53,251.991086,-0.523402,251.724466,3.665432,251.892564,1.570519
Bus54,251.992867,-0.523405,251.729381,3.665427,251.895789,1.570521
Bus55,252.021565,-0.523459,251.808576,3.665348,251.947753,1.570552
Bus56,252.101826,-0.523616,252.024055,3.665145,252.082411,1.570638
Bus57,252.066175,-0.523565,251.980546,3.665176,252.057202,1.570626
Bus58,252.045158,-0.523503,251.870257,3.665287,251.990415,1.570577
Bus59,251.983019,-0.523386,251.702204,3.665454,251.877957,1.570510
Bus60,251.992867,-0.523405,251.729381,3.665427,251.895789,1.570521
Bus61,252.021565,-0.523459,251.808576,3.665348,251.947753,1.570552
Bus62,252.101826,-0.523616,252.024055,3.665145,252.082411,1.570638
Bus63,252.064547,-0.523563,251.980551,3.665176,252.057220,1.570626
Bus64,252.045158,-0.523503,251.870228,3.665287,251.990415,1.570577
Bus65,251.982325,-0.523384,251.697587,3.665460,251.874673,1.570508
Bus66,251.962719,-0.523367,251.702265,3.665453,251.878179,1.570511
Bus67,251.992867,-0.523405,251.729381,3.665427,251.895789,1.570521
Bus68,252.021565,-0.523459,251.808576,3.665348,251.947753,1.570552
Bus69,252.101826,-0.523616,252.024055,3.665145,252.082411,1.570638
Bus70,252.058792,-0.523557,251.980568,3.665176,252.057283,1.570627
Bus71,252.045159,-0.523503,251.870171,3.665287,251.990416,1.570577
Bus72,251.974126,-0.523358,251.643030,3.665533,251.835870,1.570473
Bus73,251.961781,-0.523366,251.702268,3.665453,251.878189,1.570511
Bus74,251.953736,-0.523358,251.702292,3.665453,251.878277,1.570512
Bus75,251.992867,-0.523405,251.729381,3.665427,251.895789,1.570521
Bus76,252.021565,-0.523459,251.808576,3.665348,251.947753,1.570552
Bus77,252.101826,-0.523616,252.024055,3.665145,252.082411,1.570638
Bus78,252.045162,-0.523503,251.869883,3.665287,251.990416,1.570577
Bus79,251.971268,-0.523349,251.624014,3.665559,251.822344,1.570461
Bus80,251.992867,-0.523405,251.729381,3.665427,251.895789,1.570521
Bus81,252.021565,-0.523459,251.808576,3.665348,251.947753,1.570552
Bus82,252.101826,-0.523616,252.024055,3.665145,252.082411,1.570638
Bus83,252.045174,-0.523503,251.868797,3.665288,251.990420,1.570577
Bus84,251.970645,-0.523347,251.619864,3.665564,251.819393,1.570458
Bus85,251.992867,-0.523405,251.729381,3.665427,251.895789,1.570521
Bus86,252.021565,-0.523459,251.808576,3.665348,251.947753,1.570552
Bus87,252.101826,-0.523616,252.024055,3.665145,252.082411,1.570638
Bus88,251.969380,-0.523342,251.611448,3.665576,251.813407,1.570453
Bus89,251.992867,-0.523405,251.729381,3.665427,251.895789,1.570521
Bus90,252.021565,-0.523459,251.808576,3.665348,251.947753,1.570552
Bus91,252.101826,-0.523616,252.024055,3.665145,252.082411,1.570638
Bus92,251.968187,-0.523339,251.603512,3.665586,251.807762,1.570448
Bus93,252.021565,-0.523459,251.808576,3.665348,251.947753,1.570552
Bus94,252.101826,-0.523616,252.024055,3.665145,252.082411,1.570638
Bus95,251.967494,-0.523336,251.598899,3.665592,251.804481,1.570445
Bus96,252.021565,-0.523459,251.808576,3.665348,251.947753,1.570552
Bus97,252.101826,-0.523616,252.024055,3.665145,252.082411,1.570638
Bus98,251.967036,-0.523335,251.595853,3.665597,251.802315,1.570443
Bus99,252.021565,-0.523459,251.808576,3.665348,251.947753,1.570552
Bus100,252.101826,-0.523616,252.024055,3.665145,252.082411,1.570638
Bus101,251.966404,-0.523333,251.591646,3.665602,251.799323,1.570441
Bus102,252.021565,-0.523459,251.808576,3.665348,251.947753,1.570552
Bus103,252.101826,-0.523616,252.024055,3.665145,252.082411,1.570638
Bus104,251.966416,-0.523333,251.591588,3.665602,251.799310,1.570441
Bus105,251.965920,-0.523332,251.589163,3.665606,251.797412,1.570439
Bus106,252.021565,-0.523459,251.808576,3.665348,251.947753,1.570552
Bus107,251.966430,-0.523333,251.591518,3.665602,251.799295,1.570440
Bus108,251.965646,-0.523331,251.587754,3.665607,251.796328,1.570439
Bus109,252.021565,-0.523459,251.808576,3.665348,251.947753,1.570552
Bus110,251.966446,-0.523333,251.591436,3.665602,251.799277,1.570440
Bus111,251.954818,-0.523307,251.532181,3.665683,251.753576,1.570409
Bus112,252.021565,-0.523459,251.808576,3.665348,251.947753,1.570552
Bus113,251.966471,-0.523333,251.591312,3.665602,251.799250,1.570440
Bus114,251.953733,-0.523304,251.526614,3.665690,251.749293,1.570406
Bus115,252.021565,-0.523459,251.808576,3.665348,251.947753,1.570552
Bus116,251.966503,-0.523333,251.591152,3.665602,251.799216,1.570440
Bus117,251.954025,-0.523304,251.525884,3.665691,251.748853,1.570404
Bus118,251.947569,-0.523302,251.516005,3.665697,251.740143,1.570402
Bus119,252.021565,-0.523459,251.808576,3.665348,251.947753,1.570552
Bus120,251.966525,-0.523333,251.591037,3.665602,251.799191,1.570440
Bus121,251.954025,-0.523304,251.525884,3.665691,251.748853,1.570404
Bus122,251.954167,-0.523304,251.525528,3.665691,251.748639,1.570403
Bus123,251.936452,-0.523297,251.496875,3.665709,251.723643,1.570396
Bus124,252.021565,-0.523459,251.808576,3.665348,251.947753,1.570552
Bus125,251.966558,-0.523332,251.590875,3.665602,251.799156,1.570439
Bus126,251.954025,-0.523304,251.525884,3.665691,251.748853,1.570404
Bus127,251.954834,-0.523304,251.523859,3.665691,251.747634,1.570399
Bus128,251.931453,-0.523294,251.488272,3.665714,251.716223,1.570393
Bus129,252.021565,-0.523459,251.808576,3.665348,251.947753,1.570552
Bus130,251.966593,-0.523332,251.590699,3.665602,251.799118,1.570439
Bus131,251.954025,-0.523304,251.525884,3.665691,251.748853,1.570404
Bus132,251.953909,-0.523303,251.523862,3.665691,251.747645,1.570400
Bus133,251.957002,-0.523303,251.519093,3.665694,251.744697,1.570389
Bus134,251.929966,-0.523294,251.485712,3.665716,251.714016,1.570392
Bus135,252.021565,-0.523459,251.808576,3.665348,251.947753,1.570552
Bus136,251.966626,-0.523332,251.590533,3.665602,251.799082,1.570439
Bus137,251.954025,-0.523304,251.525884,3.665691,251.748853,1.570404
Bus138,251.953830,-0.523303,251.523862,3.665691,251.747645,1.570400
Bus139,251.958615,-0.523302,251.515547,3.665695,251.742512,1.570381
Bus140,251.928287,-0.523293,251.482823,3.665717,251.711524,1.570391
Bus141,252.021565,-0.523459,251.808576,3.665348,251.947753,1.570552
Bus142,251.966680,-0.523332,251.590261,3.665602,251.799023,1.570438
Bus143,251.954025,-0.523304,251.525884,3.665691,251.748853,1.570404
Bus144,251.953751,-0.523303,251.523863,3.665691,251.747646,1.570400
Bus145,251.959696,-0.523301,251.513173,3.665696,251.741049,1.570375
Bus146,251.926708,-0.523292,251.480106,3.665719,251.709180,1.570390
Bus147,252.021565,-0.523459,251.808576,3.665348,251.947753,1.570552
Bus148,251.966938,-0.523331,251.588966,3.665602,251.798743,1.570436
Bus149,251.954025,-0.523304,251.525884,3.665691,251.748853,1.570404
Bus150,251.953688,-0.523303,251.523863,3.665691,251.747647,1.570400
Bus151,251.959877,-0.523304,251.513716,3.665699,251.739286,1.570375
Bus152,251.959986,-0.523300,251.486648,3.665722,251.741129,1.570374
Bus153,251.924866,-0.523291,251.476935,3.665721,251.706445,1.570389
Bus154,252.021565,-0.523459,251.808576,3.665348,251.947753,1.570552
Bus155,251.966994,-0.523331,251.588684,3.665601,251.798682,1.570435
Bus156,251.954025,-0.523304,251.525884,3.665691,251.748853,1.570404
Bus157,251.953594,-0.523303,251.523863,3.665691,251.747648,1.570400
Bus158,251.960356,-0.523312,251.515158,3.665704,251.734612,1.570373
Bus159,251.960003,-0.523300,251.485034,3.665724,251.741134,1.570374
Bus160,251.924336,-0.523291,251.476023,3.665722,251.705658,1.570389
Bus161,252.021565,-0.523459,251.808576,3.665348,251.947753,1.570552
Bus162,251.967122,-0.523331,251.576965,3.665613,251.798717,1.570435
Bus163,251.966949,-0.523331,251.588450,3.665602,251.798365,1.570435
Bus164,251.954025,-0.523304,251.525884,3.665691,251.748853,1.570404
Bus165,251.953479,-0.523303,251.523863,3.665691,251.747649,1.570400
Bus166,251.960523,-0.523315,251.515659,3.665706,251.732988,1.570372
Bus167,251.960019,-0.523300,251.483559,3.665726,251.741138,1.570373
Bus168,251.921324,-0.523290,251.470840,3.665725,251.701188,1.570387
Bus169,252.021565,-0.523459,251.808576,3.665348,251.947753,1.570552
Bus170,251.967146,-0.523331,251.574751,3.665615,251.798724,1.570435
Bus171,251.966891,-0.523332,251.588140,3.665602,251.797944,1.570434
Bus172,251.954025,-0.523304,251.525884,3.665691,251.748853,1.570404
Bus173,251.953393,-0.523302,251.523864,3.665691,251.747650,1.570400
Bus174,251.960523,-0.523315,251.515659,3.665706,251.732988,1.570372
Bus175,251.960562,-0.523316,251.515802,3.665706,251.719846,1.570385
Bus176,251.960026,-0.523300,251.482946,3.665726,251.741140,1.570373
Bus177,251.919623,-0.523289,251.467912,3.665727,251.698663,1.570386
Bus178,251.967196,-0.523330,251.570183,3.665620,251.798737,1.570434
Bus179,251.966871,-0.523332,251.588058,3.665601,251.797967,1.570434
Bus180,251.966894,-0.523332,251.588153,3.665602,251.796725,1.570435
Bus181,251.954025,-0.523304,251.525884,3.665691,251.748853,1.570404
Bus182,251.953293,-0.523302,251.523864,3.665691,251.747651,1.570400
Bus183,251.960523,-0.523315,251.515659,3.665706,251.732988,1.570372
Bus184,251.960567,-0.523316,251.515818,3.665707,251.718427,1.570387
Bus185,251.960041,-0.523300,251.481625,3.665727,251.741144,1.570373
Bus186,251.918360,-0.523288,251.465739,3.665728,251.696789,1.570386
Bus187,251.966794,-0.523331,251.587738,3.665601,251.798058,1.570434
Bus188,251.966909,-0.523332,251.588208,3.665602,251.791679,1.570440
Bus189,251.954025,-0.523304,251.525884,3.665691,251.748853,1.570404
Bus190,251.953200,-0.523302,251.523864,3.665691,251.747652,1.570400
Bus191,251.960523,-0.523315,251.515659,3.665706,251.732988,1.570372
Bus192,251.960523,-0.523315,251.515659,3.665706,251.732988,1.570372
Bus193,251.960571,-0.523316,251.515833,3.665707,251.717054,1.570388
Bus194,251.960077,-0.523300,251.478262,3.665731,251.741154,1.570373
Bus195,251.917225,-0.523288,251.463785,3.665729,251.695104,1.570385
Bus196,251.966657,-0.523331,251.587167,3.665600,251.798220,1.570433
Bus197,251.966911,-0.523332,251.588214,3.665602,251.791185,1.570441
Bus198,251.966910,-0.523332,251.588211,3.665602,251.791393,1.570441
Bus199,251.954025,-0.523304,251.525884,3.665691,251.748853,1.570404
Bus200,251.953099,-0.523302,251.523865,3.665691,251.747653,1.570400
...
SourceBus_1,6667.896785,-0.000146,6667.734929,4.188659,6667.901503,2.094278
LOAD1,252.068984,-0.523567,251.980538,3.665176,252.057171,1.570626
LOAD2,252.045174,-0.523503,251.868846,3.665288,251.990419,1.570577
LOAD3,252.058792,-0.523557,251.980568,3.665176,252.057283,1.570627
LOAD4,251.961781,-0.523366,251.702268,3.665453,251.878189,1.570511
LOAD5,251.953736,-0.523358,251.702292,3.665453,251.878277,1.570512
LOAD6,252.045174,-0.523503,251.868797,3.665288,251.990420,1.570577
LOAD7,251.967196,-0.523330,251.570183,3.665620,251.798737,1.570434
LOAD8,251.966915,-0.523332,251.588227,3.665602,251.789939,1.570442
LOAD9,251.962102,-0.523326,251.587181,3.665600,251.798270,1.570433
LOAD10,251.966904,-0.523330,251.579142,3.665607,251.798298,1.570432
LOAD11,251.966904,-0.523330,251.579116,3.665607,251.798298,1.570432
LOAD12,251.966916,-0.523332,251.588231,3.665602,251.789605,1.570442
LOAD13,251.960701,-0.523298,251.421242,3.665787,251.741326,1.570370
LOAD14,251.951362,-0.523300,251.523870,3.665691,251.747672,1.570400
LOAD15,251.960339,-0.523299,251.454328,3.665754,251.741226,1.570372
LOAD16,251.960626,-0.523317,251.516035,3.665707,251.698634,1.570406
LOAD17,251.960649,-0.523317,251.516119,3.665708,251.690920,1.570414
LOAD18,251.893457,-0.523198,251.354415,3.665803,251.649794,1.570292
LOAD19,251.900671,-0.523281,251.432920,3.665751,251.664559,1.570377
LOAD20,251.889558,-0.523239,251.390452,3.665778,251.654858,1.570334
LOAD21,251.895518,-0.523272,251.444850,3.665740,251.678862,1.570379
LOAD22,251.889264,-0.523238,251.390453,3.665778,251.654861,1.570334
LOAD23,251.894493,-0.523166,251.269618,3.665878,251.653394,1.570255
LOAD24,251.884473,-0.523292,251.411837,3.665775,251.586832,1.570425
LOAD25,251.844359,-0.523114,251.300395,3.665800,251.639225,1.570284
LOAD26,251.835560,-0.523253,251.353231,3.665771,251.607536,1.570379
LOAD27,251.874036,-0.523289,251.401992,3.665776,251.610379,1.570395
LOAD28,251.874066,-0.523290,251.402103,3.665776,251.600222,1.570405
LOAD29,251.827216,-0.523094,251.289980,3.665806,251.632539,1.570284
LOAD30,251.844907,-0.523114,251.300394,3.665800,251.639219,1.570284
LOAD31,251.831112,-0.523098,251.289969,3.665807,251.632497,1.570284
LOAD32,251.823031,-0.523247,251.354152,3.665755,251.598353,1.570389
LOAD33,251.850768,-0.523124,251.281523,3.665840,251.601730,1.570289
LOAD34,251.856727,-0.523128,251.308778,3.665802,251.643465,1.570279
LOAD35,251.851233,-0.523120,251.275550,3.665845,251.618014,1.570270
LOAD36,251.849892,-0.523113,251.263801,3.665848,251.623507,1.570269
LOAD37,251.849941,-0.523113,251.259276,3.665852,251.623521,1.570269
LOAD38,251.808204,-0.523239,251.340988,3.665750,251.594920,1.570393
LOAD39,251.806586,-0.523243,251.331115,3.665768,251.574258,1.570388
LOAD40,251.809576,-0.523245,251.316314,3.665793,251.567231,1.570367
LOAD41,251.826178,-0.523254,251.210672,3.665964,251.516364,1.570312
LOAD42,251.806587,-0.523243,251.331117,3.665768,251.574079,1.570388
LOAD43,251.824964,-0.523320,251.279439,3.665952,251.426103,1.570401
LOAD44,251.830821,-0.523251,251.355568,3.665763,251.605190,1.570382
LOAD45,251.825962,-0.523255,251.230386,3.665945,251.516304,1.570313
LOAD46,251.719425,-0.523154,251.342233,3.665739,251.593887,1.570400
LOAD47,251.824948,-0.523320,251.279379,3.665952,251.431559,1.570396
LOAD48,251.728329,-0.523163,251.342206,3.665740,251.593789,1.570399
LOAD49,251.709636,-0.523145,251.342262,3.665739,251.593994,1.570400
LOAD50,251.820858,-0.523296,251.261360,3.665954,251.480647,1.570341
LOAD51,251.806873,-0.523241,251.299371,3.665832,251.547710,1.570349
LOAD52,251.811442,-0.523295,251.273132,3.665942,251.480167,1.570349
LOAD53,251.820858,-0.523296,251.260777,3.665954,251.480647,1.570341
LOAD54,251.805131,-0.523239,251.299376,3.665832,251.547729,1.570349
LOAD55,251.811084,-0.523294,251.273157,3.665942,251.480256,1.570350
